// * * * * * * * * * * * * * * * * * * * * * * * * * * * * * * * * * * * * * //
FoamFile
{
    version     2.0;
    format      ascii;
    class       dictionary;
    object      thermophysicalProperties;
}
// * * * * * * * * * * * * * * * * * * * * * * * * * * * * * * * * * * * * * //

thermoType      hPsiThermo<pureMixture<constTransport<specieThermo<hConstThermo<perfectGas>>>>>;

// name, nMoles, mol weight, CP, Hf, mu, Pr;
// mixture         air 1 28.9 1007 0 0 0.7;
// Re = 375 000 per inch. This value was in the experiment.
mixture         air 1 28.9639 1004.5 0 4.88e-6 0.7167;

// ************************************************************************* //
